This XML file does not appear to have any style information associated with it. The document tree is shown below.
<!--  generated on 2025-06-24 13:19:52 by Eclipse SUMO netedit Version 1.23.1
<neteditConfiguration xmlns:xsi="http://www.w3.org/2001/XMLSchema-instance" xsi:noNamespaceSchemaLocation="http://sumo.dlr.de/xsd/neteditConfiguration.xsd">

    <input>
        <sumo-net-file value="C:\Users\emysa\Downloads\sumo_ns3_project\sumotestdrive.net.xml"/>
    </input>

    <output>
        <output-file value="C:\Users\emysa\Downloads\sumo_ns3_project\sumotestdrive.net.xml"/>
    </output>

    <processing>
        <geometry.min-radius.fix.railways value="false"/>
        <geometry.avoid-overlap value="false"/>
        <geometry.max-grade.fix value="false"/>
        <offset.disable-normalization value="true"/>
        <lefthand value="0"/>
    </processing>

    <junctions>
        <no-internal-links value="false"/>
        <no-turnarounds value="true"/>
        <junctions.corner-detail value="5"/>
        <junctions.limit-turn-speed value="5.50"/>
        <rectangular-lane-cut value="0"/>
    </junctions>

    <pedestrian>
        <walkingareas value="true"/>
    </pedestrian>

</neteditConfiguration>
 -->
<net xmlns:xsi="http://www.w3.org/2001/XMLSchema-instance" version="1.20" junctionCornerDetail="5" walkingareas="true" limitTurnSpeed="5.50" avoidOverlap="0" xsi:noNamespaceSchemaLocation="http://sumo.dlr.de/xsd/net_file.xsd">
<location netOffset="0.00,0.00" convBoundary="-100.00,-46.60,0.00,0.52" origBoundary="-10000000000.00,-10000000000.00,10000000000.00,10000000000.00" projParameter="!"/>
<edge id=":J0_w0" function="walkingarea">
<lane id=":J0_w0_0" index="0" allow="pedestrian" speed="2.78" length="3.20" width="3.20" shape="-100.00,-0.00 -99.98,-3.20 -100.01,3.20 -100.00,0.00"/>
</edge>
<edge id=":J1_w0" function="walkingarea">
<lane id=":J1_w0_0" index="0" allow="pedestrian" speed="2.78" length="3.20" width="3.20" shape="0.00,-0.00 -0.01,3.20 -0.03,-3.20 0.00,-0.00"/>
</edge>
<edge id=":clusterJ2_J4_J5_0" function="internal">
<lane id=":clusterJ2_J4_J5_0_0" index="0" speed="13.89" length="11.49" shape="-44.23,1.51 -55.71,1.71"/>
</edge>
<edge id=":clusterJ2_J4_J5_1" function="internal">
<lane id=":clusterJ2_J4_J5_1_0" index="0" speed="7.14" length="0.88" shape="-44.23,1.51 -45.09,1.33"/>
</edge>
<edge id=":clusterJ2_J4_J5_4" function="internal">
<lane id=":clusterJ2_J4_J5_4_0" index="0" speed="7.14" length="10.40" shape="-45.09,1.33 -46.73,0.99 -48.48,-0.56 -49.50,-3.13 -49.78,-6.74"/>
</edge>
<edge id=":clusterJ2_J4_J5_2" function="internal">
<lane id=":clusterJ2_J4_J5_2_0" index="0" speed="6.56" length="9.23" shape="-55.71,-1.25 -53.16,-1.52 -51.33,-2.53 -50.20,-4.27 -49.78,-6.74"/>
</edge>
<edge id=":clusterJ2_J4_J5_3" function="internal">
<lane id=":clusterJ2_J4_J5_3_0" index="0" speed="13.89" length="11.45" shape="-55.71,-1.25 -44.25,-1.14"/>
</edge>
<edge id=":clusterJ2_J4_J5_w0" function="walkingarea">
<lane id=":clusterJ2_J4_J5_w0_0" index="0" allow="pedestrian" speed="2.78" length="8.84" width="3.20" shape="-44.21,3.11 -44.27,-2.74 -46.48,-3.16 -47.25,-3.71 -47.78,-4.48 -48.09,-5.48 -48.18,-6.70 -51.38,-6.78 -51.90,-4.54 -52.51,-3.76 -53.34,-3.23 -54.41,-2.92 -55.70,-2.85 -55.72,3.31"/>
</edge>
<edge id="-E0" from="J1" to="clusterJ2_J4_J5" priority="-1" shape="0.00,0.00 -50.17,-0.10 -55.14,0.10">
<lane id="-E0_0" index="0" speed="13.89" length="44.22" shape="-0.00,1.60 -44.23,1.51"/>
</edge>
<edge id="-E0.55" from="clusterJ2_J4_J5" to="J0" priority="-1" shape="-55.14,0.10 -55.30,0.11 -100.00,0.00">
<lane id="-E0.55_0" index="0" speed="13.89" length="44.29" shape="-55.71,1.71 -100.00,1.60"/>
</edge>
<edge id="E0" from="J0" to="clusterJ2_J4_J5" priority="-1" shape="-100.00,0.00 -57.52,0.30 -52.60,0.45 -50.40,0.52">
<lane id="E0_0" index="0" speed="13.89" length="44.28" shape="-99.99,-1.60 -57.49,-1.30 -55.71,-1.25"/>
</edge>
<edge id="E0.46" from="clusterJ2_J4_J5" to="J1" priority="-1" shape="-50.40,0.52 0.00,0.00">
<lane id="E0.46_0" index="0" speed="13.89" length="44.24" shape="-44.25,-1.14 -0.02,-1.60"/>
</edge>
<edge id="E1" from="clusterJ2_J4_J5" to="J3" priority="-1" shape="-48.23,-4.42 -47.25,-46.60">
<lane id="E1_0" index="0" speed="13.89" length="39.91" shape="-49.78,-6.74 -48.85,-46.64"/>
</edge>
<tlLogic id="clusterJ2_J4_J5" type="static" programID="0" offset="0">
<phase duration="82" state="GgGG"/>
<phase duration="3" state="yyyy"/>
<phase duration="5" state="rrrr"/>
</tlLogic>
<junction id="J0" type="dead_end" x="-100.00" y="0.00" incLanes="-E0.55_0" intLanes="" shape="-100.00,-0.00 -99.98,-3.20 -100.01,3.20"/>
<junction id="J1" type="dead_end" x="0.00" y="0.00" incLanes="E0.46_0" intLanes="" shape="0.00,-0.00 -0.01,3.20 -0.03,-3.20"/>
<junction id="J3" type="dead_end" x="-47.25" y="-46.60" incLanes="E1_0" intLanes="" shape="-50.45,-46.67 -47.25,-46.60"/>
<junction id="clusterJ2_J4_J5" type="traffic_light" x="-51.26" y="-1.27" incLanes="-E0_0 E0_0" intLanes=":clusterJ2_J4_J5_0_0 :clusterJ2_J4_J5_4_0 :clusterJ2_J4_J5_2_0 :clusterJ2_J4_J5_3_0" shape="-44.21,3.11 -44.27,-2.74 -46.48,-3.16 -47.25,-3.71 -47.78,-4.48 -48.09,-5.48 -48.18,-6.70 -51.38,-6.78 -51.90,-4.54 -52.51,-3.76 -53.34,-3.23 -54.41,-2.92 -55.70,-2.85 -55.72,3.31">
<request index="0" response="0000" foes="0000" cont="0"/>
<request index="1" response="1100" foes="1100" cont="1"/>
<request index="2" response="0000" foes="0010" cont="0"/>
<request index="3" response="0000" foes="0010" cont="0"/>
</junction>
<junction id=":clusterJ2_J4_J5_4_0" type="internal" x="-45.09" y="1.33" incLanes=":clusterJ2_J4_J5_1_0 E0_0" intLanes=":clusterJ2_J4_J5_2_0 :clusterJ2_J4_J5_3_0"/>
<connection from="-E0" to="-E0.55" fromLane="0" toLane="0" via=":clusterJ2_J4_J5_0_0" tl="clusterJ2_J4_J5" linkIndex="0" dir="s" state="O"/>
<connection from="-E0" to="E1" fromLane="0" toLane="0" via=":clusterJ2_J4_J5_1_0" tl="clusterJ2_J4_J5" linkIndex="1" dir="l" state="o"/>
<connection from="E0" to="E1" fromLane="0" toLane="0" via=":clusterJ2_J4_J5_2_0" tl="clusterJ2_J4_J5" linkIndex="2" dir="r" state="O"/>
<connection from="E0" to="E0.46" fromLane="0" toLane="0" via=":clusterJ2_J4_J5_3_0" tl="clusterJ2_J4_J5" linkIndex="3" dir="s" state="O"/>
<connection from=":clusterJ2_J4_J5_0" to="-E0.55" fromLane="0" toLane="0" dir="s" state="M"/>
<connection from=":clusterJ2_J4_J5_1" to="E1" fromLane="0" toLane="0" via=":clusterJ2_J4_J5_4_0" dir="l" state="m"/>
<connection from=":clusterJ2_J4_J5_4" to="E1" fromLane="0" toLane="0" dir="l" state="M"/>
<connection from=":clusterJ2_J4_J5_2" to="E1" fromLane="0" toLane="0" dir="r" state="M"/>
<connection from=":clusterJ2_J4_J5_3" to="E0.46" fromLane="0" toLane="0" dir="s" state="M"/>
<connection from=":J0_w0" to="E0" fromLane="0" toLane="0" dir="s" state="M"/>
<connection from="-E0.55" to=":J0_w0" fromLane="0" toLane="0" dir="s" state="M"/>
<connection from=":J1_w0" to="-E0" fromLane="0" toLane="0" dir="s" state="M"/>
<connection from="E0.46" to=":J1_w0" fromLane="0" toLane="0" dir="s" state="M"/>
<connection from=":clusterJ2_J4_J5_w0" to="E0.46" fromLane="0" toLane="0" dir="s" state="M"/>
<connection from=":clusterJ2_J4_J5_w0" to="E1" fromLane="0" toLane="0" dir="s" state="M"/>
<connection from=":clusterJ2_J4_J5_w0" to="-E0.55" fromLane="0" toLane="0" dir="s" state="M"/>
<connection from="-E0" to=":clusterJ2_J4_J5_w0" fromLane="0" toLane="0" dir="s" state="M"/>
<connection from="E0" to=":clusterJ2_J4_J5_w0" fromLane="0" toLane="0" dir="s" state="M"/>
</net>
